58
nanoribbon
Bi 0.000000 0.000000 0.000000
Bi 2.266600 -1.308622 -1.590982
Bi 0.000000 2.617078 -1.590982
Bi 2.266600 3.925700 0.000000
Bi 0.000000 7.851400 0.000000
Bi 2.266600 6.542778 -1.590982
Bi 0.000000 10.468478 -1.590982
Bi 2.266600 11.777100 0.000000
Bi 0.000000 15.702800 0.000000
Bi 2.266600 14.394178 -1.590982
Bi -0.000000 18.319878 -1.590982
Bi 2.266600 19.628500 0.000000
Bi 0.000000 23.554200 0.000000
Bi 2.266600 22.245578 -1.590982
Bi 0.000000 26.171278 -1.590982
Bi 2.266600 27.479900 0.000000
Bi 0.000000 31.405600 0.000000
Bi 2.266600 30.096978 -1.590982
Bi 0.000000 34.022678 -1.590982
Bi 2.266600 35.331300 0.000000
Bi 0.000000 39.257000 0.000000
Bi 2.266600 37.948378 -1.590982
Bi -0.000000 41.874078 -1.590982
Bi 2.266600 43.182700 0.000000
Bi 0.000000 47.108400 0.000000
Bi 2.266600 45.799778 -1.590982
Bi 0.000000 49.725478 -1.590982
Bi 2.266600 51.034100 0.000000
Bi 0.000000 54.959800 0.000000
Bi 2.266600 53.651178 -1.590982
Bi -0.000000 57.576878 -1.590982
Bi 2.266600 58.885500 0.000000
Bi 0.000000 62.811200 0.000000
Bi 2.266600 61.502578 -1.590982
Bi 0.000000 65.428278 -1.590982
Bi 2.266600 66.736900 0.000000
Bi 0.000000 70.662600 0.000000
Bi 2.266600 69.353978 -1.590982
Bi 0.000000 73.279678 -1.590982
Bi 2.266600 74.588300 0.000000
Bi 0.000000 78.514000 0.000000
Bi 2.266600 77.205378 -1.590982
Bi 0.000000 81.131078 -1.590982
Bi 2.266600 82.439700 0.000000
Bi 0.000000 86.365400 0.000000
Bi 2.266600 85.056778 -1.590982
Bi -0.000000 88.982478 -1.590982
Bi 2.266600 90.291100 0.000000
Bi 0.000000 94.216800 0.000000
Bi 2.266600 92.908178 -1.590982
Bi -0.000000 96.833878 -1.590982
Bi 2.266600 98.142500 0.000000
Bi 0.000000 102.068200 0.000000
Bi 2.266600 100.759578 -1.590982
Bi -0.000000 104.685278 -1.590982
Bi 2.266600 105.993900 0.000000
Bi 0.000000 109.919600 0.000000
Bi 2.266600 108.610978 -1.590982
