14
nanoribbon
Bi 2.266600 -1.308622 -1.590982
Bi 0.000000 0.000000 0.000000
Bi 0.000000 2.617078 -1.590982
Bi 2.266600 3.925700 0.000000
Bi 2.266600 6.542778 -1.590982
Bi 0.000000 7.851400 0.000000
Bi 0.000000 10.468478 -1.590982
Bi 2.266600 11.777100 0.000000
Bi 2.266600 14.394178 -1.590982
Bi 0.000000 15.702800 0.000000
Bi -0.000000 18.319878 -1.590982
Bi 2.266600 19.628500 0.000000
Bi 2.266600 22.245578 -1.590982
Bi 0.000000 23.554200 0.000000

